6

C             0.6655242400000           0.0000000000000           0.0000000000000
C            -0.6655242400000           0.0000000000000           0.0000000000000
H             1.2394534400000          -0.9235583300000           0.0000000000000
H             1.2394534400000           0.9235583300000           0.0000000000000
H            -1.2394534400000          -0.9235583300000           0.0000000000000
H            -1.2394534400000           0.9235583300000           0.0000000000000
