11

C            -0.0458284466000          -0.9338989240000           0.7403102963000
C            -0.0458284466000          -0.9338989240000          -0.7403102963000
C            -0.0458284466000           0.4117885533000           1.1464468114000
C            -0.0458284466000           0.4117885533000          -1.1464468114000
C             0.0685509935000           1.2066790490000           0.0000000000000
H             0.9959928150000          -1.1931969440000           0.0000000000000
H            -0.3378870204000          -1.7878083706000           1.3334553308000
H            -0.3378870204000          -1.7878083706000          -1.3334553308000
H             0.0421222086000           0.7652911916000           2.1629268752000
H             0.0421222086000           0.7652911916000          -2.1629268752000
H             0.2841135656000           2.2634814564000           0.0000000000000
