13

C             1.3703364226000           0.6307641554000          -0.0701112700000
C             1.4580400609000          -0.7419656082000          -0.0639604517000
N            -0.9795489944000          -1.1809017644000           0.1380351142000
N            -1.2233956190000           0.0362795335000          -0.3027159869000
C            -0.6574244106000           1.1286926198000           0.2311366189000
H             1.7118956415000           1.1836629271000           0.7960902432000
H             1.4507287162000           1.1609030815000          -1.0110922478000
H             1.6072770436000          -1.2975228606000           0.8540940708000
H             1.3810717893000          -1.3198472748000          -0.9754052975000
H            -0.7393242193000          -1.0965232345000           1.1246292689000
H            -1.4995826496000           0.0526376500000          -1.2712792154000
H            -0.8885612202000           2.0653338015000          -0.2591607786000
H            -0.6286052454000           1.1587645242000           1.3125006821000
