16

H            -1.4904830505000          -1.3284828679000          -1.5159104920000
C            -1.1488328052000          -0.6891304701000          -0.7182690163000
C            -0.4158029523000          -1.0943778995000           0.4243235365000
C            -1.1478292895000           0.6895718316000          -0.7191756879000
H             0.2022789163000           0.0009924508000           2.0738630763000
N            -0.3988178439000           0.0009733585000           1.2698544849000
C             1.5259864622000          -0.6952484896000          -0.3640251403000
H            -0.4033916408000          -2.0915623378000           0.8416801817000
C             1.5267488144000           0.6932163905000          -0.3632707516000
H            -1.4883705847000           1.3283268853000          -1.5177753667000
C            -0.4137258646000           1.0952783257000           0.4227214142000
H            -0.4006603891000           2.0929502006000           0.8389260024000
H             1.4011146491000           1.2352794134000          -1.2889761980000
H             1.3979604780000          -1.2363779443000          -1.2899357858000
H             2.0059943314000          -1.2405344106000           0.4370551901000
H             2.0080160080000           1.2367369691000           0.4382658708000
