17

H            -1.4627588832000           1.3214697482000           1.5887212344000
C            -1.1370668716000           0.7083200285000           0.7613829333000
H             0.4424967751000           0.0002526941000          -2.0102211388000
C            -0.4612712209000           1.1501430459000          -0.3622673500000
C            -1.1370575015000          -0.7084773718000           0.7612228803000
H            -1.3273054610000           0.0002017813000          -1.9078078530000
C            -0.3997351141000           0.0001571697000          -1.3223911299000
C             1.6039712433000           0.6868243352000           0.3177871558000
H            -0.3901629063000           2.1833332873000          -0.6727400721000
C             1.6039312353000          -0.6869171057000           0.3178034271000
H            -1.4627751327000          -1.3218321142000           1.5883977921000
C            -0.4612683856000          -1.1500475331000          -0.3625261806000
H            -0.3901959145000          -2.1831618154000          -0.6732627775000
H             1.9804976401000          -1.2418922373000          -0.5299295346000
H             1.4803500539000           1.2360321716000           1.2403576191000
H             1.9806720229000           1.2417279941000          -0.5299276826000
H             1.4801614958000          -1.2361469222000           1.2403419959000
