32

C            -1.7251683633000           0.9061319367000          -0.0005790100000
C            -1.0084502573000           0.9365681271000          -1.2708808819000
C            -1.0090665658000           0.9375153950000           1.2700484634000
C             0.2021970777000           1.5295688287000          -1.5611936620000
C             0.2013244750000           1.5309715196000           1.5604740822000
C             1.1759627290000           2.0088188900000          -0.6908798955000
C             1.1754256442000           2.0096765415000           0.6902546834000
O            -2.9414677702000           0.7424634533000          -0.0008125955000
H             0.4428977208000           1.6147625069000          -2.6154370367000
H             2.0457213942000           2.4505257065000          -1.1629256031000
H             2.0448203669000           2.4520123038000           1.1623933822000
H             0.4415186191000           1.6170502239000           2.6147531946000
C            -0.4933735352000          -1.3196510683000           1.1562670568000
H            -1.6721690173000           0.7585226972000           2.1085116325000
C            -0.4930924624000          -1.3205481966000          -1.1550868827000
H            -1.6711778146000           0.7570241179000          -2.1095237975000
C             0.3858440397000          -1.1668205403000           0.0006413078000
C            -1.6997659126000          -1.8051680993000          -0.7045330649000
H            -0.1627518447000          -1.3418301734000          -2.1766501728000
C            -1.6999238770000          -1.8046929085000           0.7057884281000
H            -0.1633911964000          -1.3400447607000           2.1779676633000
H            -2.5381686109000          -2.0804611585000          -1.3175137330000
H            -2.5384659737000          -2.0795155844000           1.3187876692000
C             1.7245918085000          -0.9959825598000           0.0004400784000
C             2.5321045167000          -0.9662909382000           1.2585061826000
C             2.5313406475000          -0.9676503108000          -1.2582302935000
H             1.9271051349000          -0.7201231507000          -2.1239754762000
H             2.9815575761000          -1.9482113327000          -1.4226822718000
H             3.3411383485000          -0.2457261649000          -1.1747898733000
H             1.9269535008000          -0.7266825739000           2.1258000163000
H             3.3362243655000          -0.2377852639000           1.1769820073000
H             2.9902298034000          -1.9439047197000           1.4185836095000
