16

C             0.0000157382000          -1.4229150941000          -0.2305729345000
C             0.0000151726000           1.4229149464000           0.2305729863000
C            -1.2112803756000          -0.8447927195000           0.2565534563000
C             1.2112726983000           0.8447431235000          -0.2566213622000
C             1.2112730541000          -0.8447426448000           0.2566214703000
C            -1.2112805704000           0.8447922237000          -0.2565533812000
H            -2.1329969051000          -1.2664177781000          -0.1330855374000
H             2.1330264998000           1.2664179472000           0.1328750891000
H            -1.2544736771000          -0.7399077645000           1.3393351790000
H             1.2543437988000           0.7397912478000          -1.3394030344000
H             1.2543438802000          -0.7397911657000           1.3394031123000
H            -1.2544741461000           0.7399073400000          -1.3393351165000
H             2.1330265533000          -1.2664176855000          -0.1328755194000
H            -2.1329975763000           1.2664167615000           0.1330850892000
H             0.0000540407000          -1.8461942619000          -1.2336793028000
H             0.0000532281000           1.8461963471000           1.2336786309000
