16

C             0.4286884065000           1.4161647611000          -0.5021597170000
C             0.4265833546000          -1.4163724140000          -0.5023015050000
C             1.2999614391000           0.7052275118000           0.2916726601000
C             1.2990619435000          -0.7067969681000           0.2915053824000
C            -1.5421364522000           0.6905005439000           0.2389998550000
C            -1.5424922903000          -0.6889352260000           0.2391081918000
H             0.3365562344000           2.4895069790000          -0.3970117147000
H             0.1163603141000           1.0130511029000          -1.4533327747000
H             0.3331605302000          -2.4896307288000          -0.3973733478000
H             0.1150217154000          -1.0128184688000          -1.4535462060000
H             1.8384313007000           1.2116721791000           1.0844942111000
H             1.8367976317000          -1.2141061274000           1.0842742657000
H            -2.0153624828000           1.2375124898000          -0.5650387349000
H            -1.3806455601000           1.2327375229000           1.1603202389000
H            -2.0167338615000          -1.2357712958000          -0.5644439116000
H            -1.3815842292000          -1.2308829050000           1.1607087693000
