10

C             0.7138515092000          -1.3623067352000           0.0000000000000
C            -0.6402282511000          -1.4632762637000           0.0000000000000
O            -1.1569525053000           0.9414768132000           0.0000000000000
N             0.0000000000000           1.3209075318000           0.0000000000000
C             1.0996217201000           0.8130092503000           0.0000000000000
H             1.2678622899000          -1.4935969769000           0.9213140695000
H             1.2678622899000          -1.4935969769000          -0.9213140695000
H            -1.2069063614000          -1.4612393347000           0.9209289848000
H            -1.2069063614000          -1.4612393347000          -0.9209289848000
H             2.0942383162000           1.2069478870000           0.0000000000000
