13

C             0.0137331559000          -0.9050514931000           1.2922663822000
C             0.0137331559000          -0.9050514931000          -1.2922663822000
C             0.0137331559000           0.5081752109000           1.2105620046000
C             0.0137331559000           0.5081752109000          -1.2105620046000
C            -0.1326980468000           1.1800565825000           0.0000000000000
H             0.4695194221000          -1.2074914708000           0.0000000000000
H             0.5226139950000          -1.3494354347000           2.1437428830000
H             0.5226139950000          -1.3494354347000          -2.1437428830000
H            -0.9101766859000          -1.4216635596000           1.0658216535000
H            -0.9101766859000          -1.4216635596000          -1.0658216535000
H             0.4192717303000           1.0852808582000           2.0365514549000
H             0.4192717303000           1.0852808582000          -2.0365514549000
H            -0.0663449626000           2.2613036340000           0.0000000000000
