16

C             0.0005378479000           1.4954917714000           0.0418743206000
C            -0.0005378479000           0.6683456569000           1.3000096590000
C             0.0005378479000          -0.6683456569000           1.3000096590000
C            -0.0005378479000          -1.4954917714000           0.0418743206000
H            -0.6831123493000           2.3402687544000           0.1584924356000
H             0.9978591273000           1.9302051559000          -0.0914395279000
H             0.0103497961000           1.1998225087000           2.2453474773000
H            -0.0103497961000          -1.1998225087000           2.2453474773000
H            -0.9978591273000          -1.9302051559000          -0.0914395279000
H             0.6831123493000          -2.3402687544000           0.1584924356000
C             0.3782231750000          -0.6633090833000          -1.1830745779000
C            -0.3782231750000           0.6633090833000          -1.1830745779000
H             0.1722709325000          -1.2236358684000          -2.0975566439000
H             1.4543442171000          -0.4624520896000          -1.1677001514000
H            -1.4543442171000           0.4624520896000          -1.1677001514000
H            -0.1722709325000           1.2236358684000          -2.0975566439000
