32

C             1.8727872752000          -0.8470353307000           0.4671894084000
C             0.9373088103000          -1.2444866858000           1.5533922810000
C             1.3674660527000          -0.5692235392000          -0.9479711595000
C            -0.3870844293000          -1.4587004702000           1.4737666082000
C             0.4988291697000          -1.6737779373000          -1.4860308634000
C            -1.2787672309000          -1.3368467060000           0.2636145062000
C            -0.6847970905000          -1.9929101564000          -0.9620861646000
O             3.0577076289000          -0.7380853953000           0.7168523744000
H            -2.2058593070000          -1.8730363829000           0.4916914422000
C             0.6614069283000           0.8057389727000          -1.0361956268000
H             2.2723095619000          -0.4994874680000          -1.5515988857000
C            -0.2376595702000           2.1783665179000           0.6193323432000
C            -0.4829431596000           1.0448158549000          -0.0708557045000
C             1.0463715859000           2.7544975060000           0.1892539546000
C             1.5827920954000           1.9630250969000          -0.7561925721000
H             0.2685897939000           0.8985630364000          -2.0559699037000
C            -1.7014905951000           0.1599814658000           0.0323612593000
C            -2.5295457491000           0.2725882072000          -1.2549369241000
C            -2.5706429769000           0.6095820223000           1.2107746751000
H            -2.0083629489000           0.6105619211000           2.1457048603000
H            -2.9416853373000           1.6203886029000           1.0363744483000
H            -3.4339504048000          -0.0497098507000           1.3213268789000
H            -1.9535428772000          -0.0087202267000          -2.1373766764000
H            -3.4092065199000          -0.3736241990000          -1.2025123382000
H            -2.8688720091000           1.3020742486000          -1.3811478085000
H            -0.8872284849000          -1.7375416024000           2.3952717107000
H             1.4333027863000          -1.3710543827000           2.5088867261000
H            -1.2742251835000          -2.7726417857000          -1.4274757979000
H             0.8546933990000          -2.2076324529000          -2.3577823379000
H             2.5325183120000           2.0910709057000          -1.2531985857000
H             1.4709302301000           3.6654750406000           0.5857496171000
H            -0.8752587384000           2.6163088499000           1.3747415289000
