10

C             0.0000000000000           0.7810950211000          -0.7001624082000
C             0.0000000000000           0.6712111918000           0.8129182132000
C             0.0000000000000          -0.6712111918000           0.8129182132000
C             0.0000000000000          -0.7810950211000          -0.7001624082000
H            -0.8887138486000           1.2391614353000          -1.1338855556000
H             0.8887138486000           1.2391614353000          -1.1338855556000
H             0.0000000000000           1.4253000953000           1.5912362813000
H             0.0000000000000          -1.4253000953000           1.5912362813000
H             0.8887138486000          -1.2391614353000          -1.1338855556000
H            -0.8887138486000          -1.2391614353000          -1.1338855556000
