13

C            -0.0145215400000          -0.7579848900000           1.3094204700000
C            -0.0145215400000          -0.7579848900000          -1.3094204700000
C            -0.0145215400000           0.6568356200000           1.2116404300000
C            -0.0145215400000           0.6568356200000          -1.2116404300000
C            -0.1728416000000           1.3344758600000           0.0000000000000
H             0.4679886300000          -1.0571749900000           0.0000000000000
H             0.4851186300000          -1.1846850400000           2.1816807800000
H             0.4851186300000          -1.1846850400000          -2.1816807800000
H            -0.9270818700000          -1.3028450800000           1.0687003800000
H            -0.9270818700000          -1.3028450800000          -1.0687003800000
H             0.3751286000000           1.2401658300000           2.0460307300000
H             0.3751286000000           1.2401658300000          -2.0460307300000
H            -0.1033915800000           2.4197262500000           0.0000000000000
