14

C             1.3203219458000          -0.0000068413000          -0.0000705595000
C             0.6123191031000          -1.2912929148000           0.0000110274000
C             0.6123337987000           1.2912814974000          -0.0001928024000
C            -0.7119775603000          -1.5667448630000           0.0000459443000
C            -0.7119575138000           1.5667492625000           0.0001476385000
C            -1.8452161744000          -0.6787998532000          -0.0001254183000
C            -1.8452058045000           0.6788164245000           0.0000852575000
H            -2.8116152323000          -1.1706262182000          -0.0003160051000
H            -2.8115926439000           1.1706546273000           0.0000154678000
H             1.3009305317000          -2.1285333467000           0.0001685482000
H            -0.9695827001000          -2.6198478900000           0.0001394755000
H             1.3009532052000           2.1285176813000          -0.0004199227000
H            -0.9695512796000           2.6198561347000           0.0003798418000
O             2.5470939189000          -0.0000046577000           0.0000782587000
