32

C 1.68339 -0.95439 0.39062
C 0.86641 -1.00915 1.59124
C 1.06780 -0.87442 -1.01239
C -0.48691 -1.25318 1.71250
C -0.01634 -1.83993 -1.33803
C -1.42210 -1.55914 0.70896
C -1.12335 -2.08271 -0.59659
O 2.90835 -0.82908 0.46596
H -0.89699 -1.14729 2.71643
H -2.44369 -1.71370 1.05038
H -1.89442 -2.71259 -1.03968
H 0.06170 -2.32743 -2.30810
C 0.64182 0.69974 -1.26966
H 1.90594 -1.03514 -1.69449
C 0.44065 1.84853 0.75477
H 1.44799 -0.85690 2.49659
C -0.33383 1.15053 -0.18731
C 1.73393 2.12030 0.21656
H 0.08101 2.22879 1.70255
C 1.85598 1.51412 -1.00249
H 0.26987 0.74458 -2.29549
H 2.50172 2.69645 0.72008
H 2.74703 1.48397 -1.61693
C -1.69324 0.87132 -0.10898
C -2.49449 0.53991 -1.34211
C -2.50579 1.37879 1.05945
H -1.95739 1.32277 2.00280
H -2.79825 2.42743 0.89973
H -3.42813 0.79942 1.16908
H -1.91038 0.01638 -2.10008
H -3.37022 -0.07116 -1.10040
H -2.86623 1.47509 -1.78935 