15

C            -0.2934255074000          -0.2253573087000           1.0745204372000
O            -0.9848025847000           0.3565221242000           0.0000000000000
C             0.9915886608000           1.4225408965000           0.6973542949000
C            -0.2934255074000          -1.5921900759000           0.7016116790000
C            -0.2934255074000          -0.2253573087000          -1.0745204372000
C             0.9915886608000           1.4225408965000          -0.6973542949000
C            -0.2934255074000          -1.5921900759000          -0.7016116790000
H            -0.6668140215000           0.0711777168000           2.0491546161000
H             0.1869596809000           1.9685266703000           1.1808198275000
H             1.8850719357000           1.3008053277000           1.2865514911000
H             0.1055668677000          -2.3965592828000           1.3120799755000
H            -0.6668140215000           0.0711777168000          -2.0491546161000
H             0.1869596809000           1.9685266703000          -1.1808198275000
H             1.8850719357000           1.3008053277000          -1.2865514911000
H             0.1055668677000          -2.3965592828000          -1.3120799755000
