14

C             0.0000000000000           0.0000000000000           1.3182272587000
C             0.0000000000000           1.2845058973000           0.6143607203000
C             0.0000000000000          -1.2845058973000           0.6143607203000
C             0.0000000000000           1.5646593288000          -0.7129722466000
C             0.0000000000000          -1.5646593288000          -0.7129722466000
C             0.0000000000000           0.6779662640000          -1.8456244905000
C             0.0000000000000          -0.6779662640000          -1.8456244905000
H             0.0000000000000           1.1670469855000          -2.8128206410000
H             0.0000000000000          -1.1670469855000          -2.8128206410000
H             0.0000000000000           2.1247834954000           1.2993499531000
H             0.0000000000000           2.6177818002000          -0.9740235732000
H             0.0000000000000          -2.1247834954000           1.2993499531000
H             0.0000000000000          -2.6177818002000          -0.9740235732000
O             0.0000000000000           0.0000000000000           2.5495571463000
