10

C            -1.3120818507000          -0.5822811904000          -0.0000939125000
C            -1.2575660329000           0.7873725530000           0.0000824705000
N             0.8936602053000           0.9855985783000          -0.0000316745000
N             1.2610956801000          -0.2329657497000          -0.0000035577000
N             0.6204635993000          -1.2221434286000           0.0000713966000
H            -1.5312675475000          -1.1153304694000           0.9138092666000
H            -1.5312461949000          -1.1150817657000          -0.9141523238000
H            -1.3263474664000           1.3474757474000           0.9213155953000
H            -1.3263331235000           1.3477195454000          -0.9209988135000
H             1.7065452419000           1.5912429664000          -0.0001582241000
