9

C             0.7609856046000          -1.2040129144000           0.0000000000000
C            -0.5983651047000          -1.3386495270000           0.0000000000000
O            -1.1140998727000           0.7702563462000           0.0000000000000
N             0.0000000000000           1.2612661340000           0.0000000000000
N             1.0873433242000           0.8262673632000           0.0000000000000
H             1.3202679072000          -1.3221719958000           0.9165035597000
H             1.3202679072000          -1.3221719958000          -0.9165035597000
H            -1.1574315508000          -1.4372333051000           0.9199300437000
H            -1.1574315508000          -1.4372333051000          -0.9199300437000
