14

C            -0.1270307539000          -1.1914389374000           1.1200629098000
C             0.2272216690000           0.1048432329000           1.4528671219000
C            -0.1270307539000           1.2441747129000           0.6925784645000
C            -0.1270307539000           1.2441747129000          -0.6925784645000
C             0.2272216690000           0.1048432329000          -1.4528671219000
C            -0.1270307539000          -1.1914389374000          -1.1200629098000
H             0.9884640710000           0.2678668317000           2.2129975435000
H            -0.0818161983000           2.2118266914000           1.1820637484000
H            -0.0818161983000           2.2118266914000          -1.1820637484000
H             0.9884640710000           0.2678668317000          -2.2129975435000
H             0.4183815436000          -2.0197454350000          -1.5656378260000
H            -1.1639903838000          -1.4054221384000          -0.9335040012000
H             0.4183815436000          -2.0197454350000           1.5656378260000
H            -1.1639903838000          -1.4054221384000           0.9335040012000
