21

H             1.1902374848000           2.0589796419000          -1.1366070260000
C             0.7033664197000           1.4809187605000          -0.3643390953000
C             0.0000000000000          -1.8367942420000           0.6927582705000
C             1.5907104751000           0.9183971210000           0.6927582705000
H             2.3782474182000           0.0012860775000          -1.1366070260000
H             1.1026663799000           0.6366247312000           1.6204030939000
H             2.5166362213000           1.4529805998000           0.8683304780000
C             1.6341964774000          -0.1313261926000          -0.3643390953000
C             0.9308300577000          -1.3495925679000          -0.3643390953000
H            -2.3782474182000           0.0012860775000          -1.1366070260000
C            -1.6341964774000          -0.1313261926000          -0.3643390953000
H             0.0000000000000          -2.9059611996000           0.8683304780000
C            -1.5907104751000           0.9183971210000           0.6927582705000
H            -1.1902374848000           2.0589796419000          -1.1366070260000
H            -1.1026663799000           0.6366247312000           1.6204030939000
H            -2.5166362213000           1.4529805998000           0.8683304780000
C            -0.7033664197000           1.4809187605000          -0.3643390953000
H             1.1880099333000          -2.0602657194000          -1.1366070260000
H             0.0000000000000          -1.2732494625000           1.6204030939000
C            -0.9308300577000          -1.3495925679000          -0.3643390953000
H            -1.1880099333000          -2.0602657194000          -1.1366070260000
